Circuit: * C:\Users\You\Documents\Project-Tally\LineControlCircuit.asc

WARNING: Node N005 is floating.

WARNING: Less than two connections to node -VCC.  This node is used by V3.
Direct Newton iteration failed to find .op point.  (Use ".option noopiter" to skip.)
Starting Gmin stepping
Gmin = 10
Gmin = 1.07374
Gmin = 0.115292
Gmin = 0.0123794
Gmin = 0.00132923
Gmin = 0.000142725
Gmin = 1.5325e-005
Gmin = 1.6455e-006
Gmin = 1.76685e-007
Gmin = 1.89714e-008
Gmin = 2.03704e-009
Gmin = 2.18725e-010
Gmin = 2.34854e-011
Gmin = 2.52173e-012
Gmin = 2.70769e-013
Gmin = 0
Gmin stepping succeeded in finding the operating point.


Date: Mon May 21 19:05:51 2018
Total elapsed time: 0.117 seconds.

tnom = 27
temp = 27
method = modified trap
totiter = 3230
traniter = 2799
tranpoints = 1394
accept = 1335
rejected = 59
matrix size = 32
fillins = 12
solver = Normal
Thread vector: 6.3/5.2[2] 2.4/2.1[2] 0.8/0.9[1] 0.1/0.7[1]  2592/500
Matrix Compiler1:     131 opcodes  0.9/0.4/[0.4]
Matrix Compiler2:     232 opcodes
