Circuit: * C:\Users\You\Documents\Project-Tally\LineControlCircuit.asc

WARNING: Less than two connections to node -VCC.  This node is used by V3.
Direct Newton iteration failed to find .op point.  (Use ".option noopiter" to skip.)
Starting Gmin stepping
Gmin = 10
Gmin = 1.07374
Gmin = 0.115292
Gmin = 0.0123794
Gmin = 0.00132923
Gmin = 0.000142725
Gmin = 1.5325e-005
Gmin = 1.6455e-006
Gmin = 1.76685e-007
Gmin = 1.89714e-008
Gmin = 2.03704e-009
Gmin = 2.18725e-010
Gmin = 2.34854e-011
Gmin = 2.52173e-012
Gmin = 2.70769e-013
Gmin = 0
Gmin stepping succeeded in finding the operating point.


Date: Tue May 22 11:13:00 2018
Total elapsed time: 0.206 seconds.

tnom = 27
temp = 27
method = modified trap
totiter = 7919
traniter = 7484
tranpoints = 2546
accept = 2183
rejected = 363
matrix size = 63
fillins = 18
solver = Normal
Thread vector: 13.8/8.6[4] 4.6/2.9[4] 2.3/1.3[4] 0.2/1.0[1]  2592/500
Matrix Compiler1:     284 opcodes  1.7/1.0/[1.0]
Matrix Compiler2: off
