Circuit: * C:\Users\You\Documents\Project-Tally\PulseLengthTrigger.asc

WARNING: Less than two connections to node N002.  This node is used by A2.
Direct Newton iteration for .op point succeeded.
.step run=1
.step run=2
.step run=3
.step run=4
.step run=5
.step run=6
.step run=7
.step run=8
.step run=9
.step run=10

Date: Tue May 22 15:43:29 2018
Total elapsed time: 0.616 seconds.

tnom = 27
temp = 27
method = modified trap
totiter = 3794
traniter = 3764
tranpoints = 1615
accept = 1506
rejected = 109
matrix size = 18
fillins = 3
solver = Normal
Matrix Compiler1:      57 opcodes  0.3/[0.1]/0.1
Matrix Compiler2: off
